161352
  -OEChem-09152621193D

 81 85  0     1  0  0  0  0  0999 V2000
   -5.8849    0.9799    1.3277 O   0  0  0  0  0  0  0  0  0  0  0  0
   -2.9309    3.4517   -0.2081 O   0  0  0  0  0  0  0  0  0  0  0  0
    4.9867   -2.7609    0.7773 O   0  0  0  0  0  0  0  0  0  0  0  0
   -3.1259    1.8762   -1.8438 O   0  0  0  0  0  0  0  0  0  0  0  0
    3.5969   -1.3995    1.9651 O   0  0  0  0  0  0  0  0  0  0  0  0
   -0.4925   -1.2400   -0.0033 C   0  0  1  0  0  0  0  0  0  0  0  0
    0.9417   -0.9186   -0.7066 C   0  0  1  0  0  0  0  0  0  0  0  0
   -1.2566    0.1403    0.2040 C   0  0  1  0  0  0  0  0  0  0  0  0
   -2.7679    0.0218    0.6196 C   0  0  2  0  0  0  0  0  0  0  0  0
    1.7422    0.0877    0.2228 C   0  0  1  0  0  0  0  0  0  0  0  0
   -3.4471   -0.8962   -0.4296 C   0  0  2  0  0  0  0  0  0  0  0  0
    3.1698    0.3263   -0.3184 C   0  0  2  0  0  0  0  0  0  0  0  0
   -1.3649   -2.2073   -0.8743 C   0  0  0  0  0  0  0  0  0  0  0  0
   -0.4382    1.1317    1.0505 C   0  0  0  0  0  0  0  0  0  0  0  0
   -4.9736   -0.7075   -0.2619 C   0  0  0  0  0  0  0  0  0  0  0  0
   -3.6386    1.3065    0.4543 C   0  0  2  0  0  0  0  0  0  0  0  0
    3.9513   -0.9967   -0.4096 C   0  0  1  0  0  0  0  0  0  0  0  0
    0.9586    1.3850    0.4758 C   0  0  0  0  0  0  0  0  0  0  0  0
   -2.8496   -2.2980   -0.4699 C   0  0  0  0  0  0  0  0  0  0  0  0
    1.7988   -2.2134   -0.9404 C   0  0  0  0  0  0  0  0  0  0  0  0
   -5.0807    0.7934    0.1696 C   0  0  2  0  0  0  0  0  0  0  0  0
    3.2584   -1.9572   -1.3753 C   0  0  0  0  0  0  0  0  0  0  0  0
   -0.2640   -1.9736    1.3533 C   0  0  0  0  0  0  0  0  0  0  0  0
    4.1405    1.2553    0.4364 C   0  0  1  0  0  0  0  0  0  0  0  0
    0.7425   -0.2947   -2.1307 C   0  0  0  0  0  0  0  0  0  0  0  0
   -2.9435   -0.4350    2.0915 C   0  0  0  0  0  0  0  0  0  0  0  0
    5.3309   -0.5035   -0.8427 C   0  0  0  0  0  0  0  0  0  0  0  0
    5.5392    0.7923   -0.0376 C   0  0  0  0  0  0  0  0  0  0  0  0
   -5.7979   -1.0772   -1.5062 C   0  0  0  0  0  0  0  0  0  0  0  0
   -5.4816   -1.6062    0.8871 C   0  0  0  0  0  0  0  0  0  0  0  0
   -3.2121    2.2093   -0.6712 C   0  0  0  0  0  0  0  0  0  0  0  0
    4.1356   -1.7150    0.9146 C   0  0  0  0  0  0  0  0  0  0  0  0
    3.9387    2.7132    0.1746 C   0  0  0  0  0  0  0  0  0  0  0  0
    4.0236    3.1458   -1.2591 C   0  0  0  0  0  0  0  0  0  0  0  0
    3.6952    3.5843    1.1650 C   0  0  0  0  0  0  0  0  0  0  0  0
   -1.2915    0.5872   -0.7917 H   0  0  0  0  0  0  0  0  0  0  0  0
    1.8276   -0.3659    1.2081 H   0  0  0  0  0  0  0  0  0  0  0  0
   -3.2282   -0.4889   -1.4283 H   0  0  0  0  0  0  0  0  0  0  0  0
    3.0726    0.7182   -1.3362 H   0  0  0  0  0  0  0  0  0  0  0  0
   -0.9364   -3.2170   -0.8645 H   0  0  0  0  0  0  0  0  0  0  0  0
   -1.3554   -1.8879   -1.9199 H   0  0  0  0  0  0  0  0  0  0  0  0
   -0.3234    0.7762    2.0787 H   0  0  0  0  0  0  0  0  0  0  0  0
   -0.9586    2.0925    1.1227 H   0  0  0  0  0  0  0  0  0  0  0  0
   -3.6174    1.9014    1.3775 H   0  0  0  0  0  0  0  0  0  0  0  0
    0.8812    1.9787   -0.4416 H   0  0  0  0  0  0  0  0  0  0  0  0
    1.4868    2.0009    1.2079 H   0  0  0  0  0  0  0  0  0  0  0  0
   -3.3758   -2.9067   -1.2146 H   0  0  0  0  0  0  0  0  0  0  0  0
   -2.9488   -2.8250    0.4821 H   0  0  0  0  0  0  0  0  0  0  0  0
    1.3196   -2.8490   -1.6952 H   0  0  0  0  0  0  0  0  0  0  0  0
    1.8469   -2.8154   -0.0305 H   0  0  0  0  0  0  0  0  0  0  0  0
   -5.5428    1.3843   -0.6307 H   0  0  0  0  0  0  0  0  0  0  0  0
    3.7830   -2.9189   -1.4319 H   0  0  0  0  0  0  0  0  0  0  0  0
    3.2777   -1.5536   -2.3941 H   0  0  0  0  0  0  0  0  0  0  0  0
    0.2404   -1.3605    2.1019 H   0  0  0  0  0  0  0  0  0  0  0  0
   -1.1941   -2.3137    1.8053 H   0  0  0  0  0  0  0  0  0  0  0  0
    0.3178   -2.8905    1.2339 H   0  0  0  0  0  0  0  0  0  0  0  0
    4.0619    1.0635    1.5145 H   0  0  0  0  0  0  0  0  0  0  0  0
    1.6879   -0.0678   -2.6290 H   0  0  0  0  0  0  0  0  0  0  0  0
    0.2278   -0.9824   -2.8074 H   0  0  0  0  0  0  0  0  0  0  0  0
    0.1847    0.6427   -2.1250 H   0  0  0  0  0  0  0  0  0  0  0  0
   -2.1042   -0.1195    2.7163 H   0  0  0  0  0  0  0  0  0  0  0  0
   -3.8123    0.0152    2.5819 H   0  0  0  0  0  0  0  0  0  0  0  0
   -3.0294   -1.5159    2.2059 H   0  0  0  0  0  0  0  0  0  0  0  0
    5.3261   -0.2575   -1.9124 H   0  0  0  0  0  0  0  0  0  0  0  0
    6.1544   -1.2057   -0.6805 H   0  0  0  0  0  0  0  0  0  0  0  0
    6.1468    0.5674    0.8492 H   0  0  0  0  0  0  0  0  0  0  0  0
    6.1179    1.5204   -0.6122 H   0  0  0  0  0  0  0  0  0  0  0  0
   -6.8620   -0.8678   -1.3513 H   0  0  0  0  0  0  0  0  0  0  0  0
   -5.4702   -0.4935   -2.3733 H   0  0  0  0  0  0  0  0  0  0  0  0
   -5.6907   -2.1376   -1.7574 H   0  0  0  0  0  0  0  0  0  0  0  0
   -6.5788   -1.5680    0.9288 H   0  0  0  0  0  0  0  0  0  0  0  0
   -5.2349   -2.6589    0.7101 H   0  0  0  0  0  0  0  0  0  0  0  0
   -5.1576   -1.3557    1.8921 H   0  0  0  0  0  0  0  0  0  0  0  0
   -6.7985    0.7493    1.0875 H   0  0  0  0  0  0  0  0  0  0  0  0
    4.9176    2.7812   -1.7690 H   0  0  0  0  0  0  0  0  0  0  0  0
    3.1443    2.8165   -1.8210 H   0  0  0  0  0  0  0  0  0  0  0  0
    4.0499    4.2392   -1.3377 H   0  0  0  0  0  0  0  0  0  0  0  0
   -2.6468    4.0549   -0.9275 H   0  0  0  0  0  0  0  0  0  0  0  0
    5.1196   -3.2382    1.6239 H   0  0  0  0  0  0  0  0  0  0  0  0
    3.5479    4.6402    0.9636 H   0  0  0  0  0  0  0  0  0  0  0  0
    3.6364    3.2640    2.1999 H   0  0  0  0  0  0  0  0  0  0  0  0
  1 21  1  0  0  0  0
  1 74  1  0  0  0  0
  2 31  1  0  0  0  0
  2 78  1  0  0  0  0
  3 32  1  0  0  0  0
  3 79  1  0  0  0  0
  4 31  2  0  0  0  0
  5 32  2  0  0  0  0
  6  7  1  0  0  0  0
  6  8  1  0  0  0  0
  6 13  1  0  0  0  0
  6 23  1  0  0  0  0
  7 10  1  0  0  0  0
  7 20  1  0  0  0  0
  7 25  1  0  0  0  0
  8  9  1  0  0  0  0
  8 14  1  0  0  0  0
  8 36  1  0  0  0  0
  9 11  1  0  0  0  0
  9 16  1  0  0  0  0
  9 26  1  0  0  0  0
 10 12  1  0  0  0  0
 10 18  1  0  0  0  0
 10 37  1  0  0  0  0
 11 15  1  0  0  0  0
 11 19  1  0  0  0  0
 11 38  1  0  0  0  0
 12 17  1  0  0  0  0
 12 24  1  0  0  0  0
 12 39  1  0  0  0  0
 13 19  1  0  0  0  0
 13 40  1  0  0  0  0
 13 41  1  0  0  0  0
 14 18  1  0  0  0  0
 14 42  1  0  0  0  0
 14 43  1  0  0  0  0
 15 21  1  0  0  0  0
 15 29  1  0  0  0  0
 15 30  1  0  0  0  0
 16 21  1  0  0  0  0
 16 31  1  0  0  0  0
 16 44  1  0  0  0  0
 17 22  1  0  0  0  0
 17 27  1  0  0  0  0
 17 32  1  0  0  0  0
 18 45  1  0  0  0  0
 18 46  1  0  0  0  0
 19 47  1  0  0  0  0
 19 48  1  0  0  0  0
 20 22  1  0  0  0  0
 20 49  1  0  0  0  0
 20 50  1  0  0  0  0
 21 51  1  0  0  0  0
 22 52  1  0  0  0  0
 22 53  1  0  0  0  0
 23 54  1  0  0  0  0
 23 55  1  0  0  0  0
 23 56  1  0  0  0  0
 24 28  1  0  0  0  0
 24 33  1  0  0  0  0
 24 57  1  0  0  0  0
 25 58  1  0  0  0  0
 25 59  1  0  0  0  0
 25 60  1  0  0  0  0
 26 61  1  0  0  0  0
 26 62  1  0  0  0  0
 26 63  1  0  0  0  0
 27 28  1  0  0  0  0
 27 64  1  0  0  0  0
 27 65  1  0  0  0  0
 28 66  1  0  0  0  0
 28 67  1  0  0  0  0
 29 68  1  0  0  0  0
 29 69  1  0  0  0  0
 29 70  1  0  0  0  0
 30 71  1  0  0  0  0
 30 72  1  0  0  0  0
 30 73  1  0  0  0  0
 33 34  1  0  0  0  0
 33 35  2  0  0  0  0
 34 75  1  0  0  0  0
 34 76  1  0  0  0  0
 34 77  1  0  0  0  0
 35 80  1  0  0  0  0
 35 81  1  0  0  0  0
M  END
> <PUBCHEM_COMPOUND_CID>
161352

> <PUBCHEM_CONFORMER_RMSD>
0.8

> <PUBCHEM_CONFORMER_DIVERSEORDER>
1

> <PUBCHEM_MMFF94_PARTIAL_CHARGES>
19
1 -0.68
16 0.06
17 0.06
2 -0.65
21 0.28
24 0.14
3 -0.65
31 0.66
32 0.66
33 -0.28
34 0.14
35 -0.3
4 -0.57
5 -0.57
74 0.4
78 0.5
79 0.5
80 0.15
81 0.15

> <PUBCHEM_EFFECTIVE_ROTOR_COUNT>
5.4

> <PUBCHEM_PHARMACOPHORE_FEATURES>
14
1 1 acceptor
1 1 donor
1 2 acceptor
1 3 acceptor
1 4 acceptor
1 5 acceptor
3 15 29 30 hydrophobe
3 2 4 31 anion
3 3 5 32 anion
5 12 17 24 27 28 rings
5 9 11 15 16 21 rings
6 6 7 8 10 14 18 rings
6 6 8 9 11 13 19 rings
6 7 10 12 17 20 22 rings

> <PUBCHEM_HEAVY_ATOM_COUNT>
35

> <PUBCHEM_ATOM_DEF_STEREO_COUNT>
11

> <PUBCHEM_ATOM_UDEF_STEREO_COUNT>
0

> <PUBCHEM_BOND_DEF_STEREO_COUNT>
0

> <PUBCHEM_BOND_UDEF_STEREO_COUNT>
0

> <PUBCHEM_ISOTOPIC_ATOM_COUNT>
0

> <PUBCHEM_COMPONENT_COUNT>
1

> <PUBCHEM_CACTVS_TAUTO_COUNT>
1

> <PUBCHEM_CONFORMER_ID>
0002764800000001

> <PUBCHEM_MMFF94_ENERGY>
173.2746

> <PUBCHEM_FEATURE_SELFOVERLAP>
71.293

> <PUBCHEM_SHAPE_FINGERPRINT>
10439779 11 17832972863386996888
11595378 159 17241035544292899260
12107183 9 17903350408052227730
12107698 1 18409164385480145768
12166972 35 18059857238481627306
12236239 1 18260268529468861658
12403260 363 18412259506607310997
12422481 6 18187656786514361541
12633257 1 18343022159762850730
12670546 56 18186515492800761875
12788726 201 16845027735777994409
13165053 137 12199767747259696555
13224815 77 17346600768082381718
13533116 47 18113613465390935122
13583140 156 18187093849076038226
13782708 43 18114184086008292754
13811026 1 18410571833932258427
13944108 23 16315256340189551213
14251764 38 18335987492974722476
14466204 15 18119241762629093634
14790565 3 18201162168814406439
15001296 14 18269271421218999190
15183329 4 18272651242832790863
15788980 27 18261395490248171386
15961568 22 18041845137543142764
17349148 13 17775283846166532410
17844677 252 18408889511905111856
18681886 176 18060137652965470786
20511986 3 18200864171430830544
20715895 44 18125720093508825329
21033648 144 18269267023093659492
21033648 29 17458612432719631309
21133410 127 17897157151265210812
21315764 268 18335415747075303029
21857420 4 13932825671800481365
22149856 69 17417544587582059299
23227448 37 18341331175314241038
23522609 53 17630072540115280409
23559900 14 18059582356359194598
3004659 81 18343023285445085426
350125 39 18412548712361780100
3680242 22 18341899545537865794
392239 28 18340210700389274137
4073 2 18189340241689772258
4325135 7 17988924487814993431
4340502 62 18113897225616963514
5104073 3 18411706495540613739
6086070 43 18117258282043560334

> <PUBCHEM_SHAPE_MULTIPOLES>
690.94
13.32
3.46
1.57
3.73
1.97
-0.01
1.2
-0.3
-2.54
0.13
0.26
-0.18
-0.14

> <PUBCHEM_SHAPE_SELFOVERLAP>
1482.661

> <PUBCHEM_SHAPE_VOLUME>
381

> <PUBCHEM_COORDINATE_TYPE>
2
5
10

$$$$
