51346169
  -OEChem-09152621192D

178188  0     1  0  0  0  0  0999 V2000
   10.2649    6.0666    0.0000 O   0  0  0  0  0  0  0  0  0  0  0  0
   11.1089    7.6114    0.0000 O   0  0  0  0  0  0  0  0  0  0  0  0
   13.9049    6.5759    0.0000 O   0  0  0  0  0  0  0  0  0  0  0  0
   12.0632   -1.3259    0.0000 O   0  0  0  0  0  0  0  0  0  0  0  0
   10.3312   -1.3259    0.0000 O   0  0  0  0  0  0  0  0  0  0  0  0
   12.0632   -3.3259    0.0000 O   0  0  0  0  0  0  0  0  0  0  0  0
   10.3312   -4.3259    0.0000 O   0  0  0  0  0  0  0  0  0  0  0  0
    8.5991   -3.3259    0.0000 O   0  0  0  0  0  0  0  0  0  0  0  0
   12.9292   -1.8259    0.0000 O   0  0  0  0  0  0  0  0  0  0  0  0
    8.5991   -4.3259    0.0000 O   0  0  0  0  0  0  0  0  0  0  0  0
   13.7953   -4.3259    0.0000 O   0  0  0  0  0  0  0  0  0  0  0  0
   10.3312   -6.3259    0.0000 O   0  0  0  0  0  0  0  0  0  0  0  0
   15.5273   -3.3259    0.0000 O   0  0  0  0  0  0  0  0  0  0  0  0
   15.5273   -1.3259    0.0000 O   0  0  0  0  0  0  0  0  0  0  0  0
    8.5991   -7.3259    0.0000 O   0  0  0  0  0  0  0  0  0  0  0  0
    6.8671   -6.3259    0.0000 O   0  0  0  0  0  0  0  0  0  0  0  0
    6.8671   -3.3259    0.0000 O   0  0  0  0  0  0  0  0  0  0  0  0
    9.4651   -7.8259    0.0000 O   0  0  0  0  0  0  0  0  0  0  0  0
   12.0632   -7.3259    0.0000 O   0  0  0  0  0  0  0  0  0  0  0  0
   12.0632   -9.3259    0.0000 O   0  0  0  0  0  0  0  0  0  0  0  0
    5.1350   -3.3259    0.0000 O   0  0  0  0  0  0  0  0  0  0  0  0
   10.3312  -10.3259    0.0000 O   0  0  0  0  0  0  0  0  0  0  0  0
    6.8671   -1.3259    0.0000 O   0  0  0  0  0  0  0  0  0  0  0  0
    5.1350   -0.3259    0.0000 O   0  0  0  0  0  0  0  0  0  0  0  0
    3.4030   -1.3259    0.0000 O   0  0  0  0  0  0  0  0  0  0  0  0
    2.5369   -2.8259    0.0000 O   0  0  0  0  0  0  0  0  0  0  0  0
   11.1367    4.5700    0.0000 C   0  0  1  0  0  0  0  0  0  0  0  0
   11.1246    3.5284    0.0000 C   0  0  1  0  0  0  0  0  0  0  0  0
   12.0008    5.0733    0.0000 C   0  0  1  0  0  0  0  0  0  0  0  0
   12.0247    3.0041    0.0000 C   0  0  1  0  0  0  0  0  0  0  0  0
   11.9969    6.0733    0.0000 C   0  0  2  0  0  0  0  0  0  0  0  0
   11.1290    6.5700    0.0000 C   0  0  1  0  0  0  0  0  0  0  0  0
   11.4989    5.5714    0.0000 C   0  0  0  0  0  0  0  0  0  0  0  0
   12.0373    1.9192    0.0000 C   0  0  2  0  0  0  0  0  0  0  0  0
   10.2687    5.0666    0.0000 C   0  0  0  0  0  0  0  0  0  0  0  0
   12.9127    4.5700    0.0000 C   0  0  0  0  0  0  0  0  0  0  0  0
   10.1747    3.0041    0.0000 C   0  0  0  0  0  0  0  0  0  0  0  0
   11.0997    1.3731    0.0000 C   0  0  1  0  0  0  0  0  0  0  0  0
   12.9248    3.5284    0.0000 C   0  0  0  0  0  0  0  0  0  0  0  0
   12.9050    6.5837    0.0000 C   0  0  2  0  0  0  0  0  0  0  0  0
   10.1622    1.9192    0.0000 C   0  0  0  0  0  0  0  0  0  0  0  0
   10.2606    4.0317    0.0000 C   0  0  0  0  0  0  0  0  0  0  0  0
   11.0866    0.2430    0.0000 C   0  0  0  0  0  0  0  0  0  0  0  0
   13.0267    1.3731    0.0000 C   0  0  0  0  0  0  0  0  0  0  0  0
   12.9013    2.4225    0.0000 C   0  0  0  0  0  0  0  0  0  0  0  0
   12.9090    7.6253    0.0000 C   0  0  0  0  0  0  0  0  0  0  0  0
   12.0632   -0.3259    0.0000 C   0  0  2  0  0  0  0  0  0  0  0  0
   13.0398    0.2430    0.0000 C   0  0  0  0  0  0  0  0  0  0  0  0
   12.0049    8.1426    0.0000 C   0  0  2  0  0  0  0  0  0  0  0  0
   13.3983    5.7138    0.0000 C   0  0  0  0  0  0  0  0  0  0  0  0
   10.0867    0.2507    0.0000 C   0  0  0  0  0  0  0  0  0  0  0  0
   10.5800   -0.6192    0.0000 C   0  0  0  0  0  0  0  0  0  0  0  0
   11.9972    9.1426    0.0000 C   0  0  0  0  0  0  0  0  0  0  0  0
   11.1972   -1.8259    0.0000 C   0  0  2  0  0  0  0  0  0  0  0  0
   11.1273    9.6359    0.0000 C   0  0  0  0  0  0  0  0  0  0  0  0
   11.1972   -2.8259    0.0000 C   0  0  1  0  0  0  0  0  0  0  0  0
   11.1196   10.6359    0.0000 C   0  0  0  0  0  0  0  0  0  0  0  0
   10.2652    9.1292    0.0000 C   0  0  0  0  0  0  0  0  0  0  0  0
   10.3312   -3.3259    0.0000 C   0  0  2  0  0  0  0  0  0  0  0  0
    9.4651   -1.8259    0.0000 C   0  0  0  0  0  0  0  0  0  0  0  0
    9.4651   -2.8259    0.0000 C   0  0  2  0  0  0  0  0  0  0  0  0
   12.9292   -2.8259    0.0000 C   0  0  2  0  0  0  0  0  0  0  0  0
    9.4651   -4.8259    0.0000 C   0  0  2  0  0  0  0  0  0  0  0  0
   13.7953   -3.3259    0.0000 C   0  0  1  0  0  0  0  0  0  0  0  0
    9.4651   -5.8259    0.0000 C   0  0  1  0  0  0  0  0  0  0  0  0
   14.6613   -2.8259    0.0000 C   0  0  1  0  0  0  0  0  0  0  0  0
   13.7953   -1.3259    0.0000 C   0  0  2  0  0  0  0  0  0  0  0  0
   14.6613   -1.8259    0.0000 C   0  0  2  0  0  0  0  0  0  0  0  0
    8.5991   -6.3259    0.0000 C   0  0  2  0  0  0  0  0  0  0  0  0
    7.7331   -4.8259    0.0000 C   0  0  1  0  0  0  0  0  0  0  0  0
    7.7331   -5.8259    0.0000 C   0  0  1  0  0  0  0  0  0  0  0  0
   13.7953   -0.3259    0.0000 C   0  0  0  0  0  0  0  0  0  0  0  0
    6.8671   -4.3259    0.0000 C   0  0  0  0  0  0  0  0  0  0  0  0
   10.3312   -7.3259    0.0000 C   0  0  2  0  0  0  0  0  0  0  0  0
   11.1972   -7.8259    0.0000 C   0  0  1  0  0  0  0  0  0  0  0  0
   11.1972   -8.8259    0.0000 C   0  0  2  0  0  0  0  0  0  0  0  0
    9.4651   -8.8259    0.0000 C   0  0  0  0  0  0  0  0  0  0  0  0
    6.0010   -2.8259    0.0000 C   0  0  2  0  0  0  0  0  0  0  0  0
   10.3312   -9.3259    0.0000 C   0  0  1  0  0  0  0  0  0  0  0  0
    6.0010   -1.8259    0.0000 C   0  0  1  0  0  0  0  0  0  0  0  0
    5.1350   -1.3259    0.0000 C   0  0  2  0  0  0  0  0  0  0  0  0
    4.2690   -2.8259    0.0000 C   0  0  1  0  0  0  0  0  0  0  0  0
    4.2690   -1.8259    0.0000 C   0  0  1  0  0  0  0  0  0  0  0  0
    3.4030   -3.3259    0.0000 C   0  0  0  0  0  0  0  0  0  0  0  0
   12.8373    5.2241    0.0000 H   0  0  0  0  0  0  0  0  0  0  0  0
   12.7641    2.5848    0.0000 H   0  0  0  0  0  0  0  0  0  0  0  0
   12.8346    5.9289    0.0000 H   0  0  0  0  0  0  0  0  0  0  0  0
   11.9974    5.2028    0.0000 H   0  0  0  0  0  0  0  0  0  0  0  0
   11.9945    5.9438    0.0000 H   0  0  0  0  0  0  0  0  0  0  0  0
    9.6578    5.1719    0.0000 H   0  0  0  0  0  0  0  0  0  0  0  0
   10.0589    4.4832    0.0000 H   0  0  0  0  0  0  0  0  0  0  0  0
   13.5248    4.4710    0.0000 H   0  0  0  0  0  0  0  0  0  0  0  0
   13.1150    5.1560    0.0000 H   0  0  0  0  0  0  0  0  0  0  0  0
    9.9724    3.5902    0.0000 H   0  0  0  0  0  0  0  0  0  0  0  0
    9.5627    2.9051    0.0000 H   0  0  0  0  0  0  0  0  0  0  0  0
   10.3603    0.9538    0.0000 H   0  0  0  0  0  0  0  0  0  0  0  0
   13.1406    2.9472    0.0000 H   0  0  0  0  0  0  0  0  0  0  0  0
   13.5344    3.6416    0.0000 H   0  0  0  0  0  0  0  0  0  0  0  0
    9.5526    2.0324    0.0000 H   0  0  0  0  0  0  0  0  0  0  0  0
    9.9464    1.3380    0.0000 H   0  0  0  0  0  0  0  0  0  0  0  0
   10.5726    4.5675    0.0000 H   0  0  0  0  0  0  0  0  0  0  0  0
    9.7248    4.3438    0.0000 H   0  0  0  0  0  0  0  0  0  0  0  0
    9.9485    3.4960    0.0000 H   0  0  0  0  0  0  0  0  0  0  0  0
   13.6388    1.2741    0.0000 H   0  0  0  0  0  0  0  0  0  0  0  0
   13.2290    1.9592    0.0000 H   0  0  0  0  0  0  0  0  0  0  0  0
   13.2134    1.8868    0.0000 H   0  0  0  0  0  0  0  0  0  0  0  0
   13.4371    2.7346    0.0000 H   0  0  0  0  0  0  0  0  0  0  0  0
   12.5893    2.9583    0.0000 H   0  0  0  0  0  0  0  0  0  0  0  0
   13.5194    7.5168    0.0000 H   0  0  0  0  0  0  0  0  0  0  0  0
   13.1203    8.2082    0.0000 H   0  0  0  0  0  0  0  0  0  0  0  0
   12.6007   -0.6348    0.0000 H   0  0  0  0  0  0  0  0  0  0  0  0
   13.2556   -0.3382    0.0000 H   0  0  0  0  0  0  0  0  0  0  0  0
   13.6494    0.3561    0.0000 H   0  0  0  0  0  0  0  0  0  0  0  0
   11.4650    8.4474    0.0000 H   0  0  0  0  0  0  0  0  0  0  0  0
   12.8590    5.4079    0.0000 H   0  0  0  0  0  0  0  0  0  0  0  0
   13.7041    5.1745    0.0000 H   0  0  0  0  0  0  0  0  0  0  0  0
   13.9376    6.0197    0.0000 H   0  0  0  0  0  0  0  0  0  0  0  0
   10.0915    0.8707    0.0000 H   0  0  0  0  0  0  0  0  0  0  0  0
    9.4667    0.2555    0.0000 H   0  0  0  0  0  0  0  0  0  0  0  0
   10.0819   -0.3693    0.0000 H   0  0  0  0  0  0  0  0  0  0  0  0
   10.0455   -0.3050    0.0000 H   0  0  0  0  0  0  0  0  0  0  0  0
   10.2659   -1.1537    0.0000 H   0  0  0  0  0  0  0  0  0  0  0  0
   11.1145   -0.9333    0.0000 H   0  0  0  0  0  0  0  0  0  0  0  0
   14.2191    7.1105    0.0000 H   0  0  0  0  0  0  0  0  0  0  0  0
   12.5317    9.4567    0.0000 H   0  0  0  0  0  0  0  0  0  0  0  0
   11.7341   -2.1359    0.0000 H   0  0  0  0  0  0  0  0  0  0  0  0
   11.1972   -3.4459    0.0000 H   0  0  0  0  0  0  0  0  0  0  0  0
   11.7396   10.6406    0.0000 H   0  0  0  0  0  0  0  0  0  0  0  0
   11.1149   11.2558    0.0000 H   0  0  0  0  0  0  0  0  0  0  0  0
   10.4996   10.6311    0.0000 H   0  0  0  0  0  0  0  0  0  0  0  0
    9.9511    9.6638    0.0000 H   0  0  0  0  0  0  0  0  0  0  0  0
    9.7307    8.8151    0.0000 H   0  0  0  0  0  0  0  0  0  0  0  0
   10.5793    8.5947    0.0000 H   0  0  0  0  0  0  0  0  0  0  0  0
    9.7942   -3.6359    0.0000 H   0  0  0  0  0  0  0  0  0  0  0  0
    9.2531   -1.2433    0.0000 H   0  0  0  0  0  0  0  0  0  0  0  0
    8.8546   -1.9335    0.0000 H   0  0  0  0  0  0  0  0  0  0  0  0
    8.9282   -2.5159    0.0000 H   0  0  0  0  0  0  0  0  0  0  0  0
   12.3923   -2.5159    0.0000 H   0  0  0  0  0  0  0  0  0  0  0  0
    8.0622   -3.0159    0.0000 H   0  0  0  0  0  0  0  0  0  0  0  0
   10.0021   -5.1359    0.0000 H   0  0  0  0  0  0  0  0  0  0  0  0
   14.3322   -3.6359    0.0000 H   0  0  0  0  0  0  0  0  0  0  0  0
    9.4651   -6.4459    0.0000 H   0  0  0  0  0  0  0  0  0  0  0  0
   15.1982   -2.5159    0.0000 H   0  0  0  0  0  0  0  0  0  0  0  0
   13.2583   -1.0159    0.0000 H   0  0  0  0  0  0  0  0  0  0  0  0
   14.6613   -1.2059    0.0000 H   0  0  0  0  0  0  0  0  0  0  0  0
    9.1361   -6.6359    0.0000 H   0  0  0  0  0  0  0  0  0  0  0  0
   14.3322   -4.6359    0.0000 H   0  0  0  0  0  0  0  0  0  0  0  0
    7.7331   -4.2059    0.0000 H   0  0  0  0  0  0  0  0  0  0  0  0
    7.7331   -6.4459    0.0000 H   0  0  0  0  0  0  0  0  0  0  0  0
   14.4153   -0.3259    0.0000 H   0  0  0  0  0  0  0  0  0  0  0  0
   13.7953    0.2941    0.0000 H   0  0  0  0  0  0  0  0  0  0  0  0
   13.1753   -0.3259    0.0000 H   0  0  0  0  0  0  0  0  0  0  0  0
   16.0643   -3.0159    0.0000 H   0  0  0  0  0  0  0  0  0  0  0  0
   15.5273   -0.7059    0.0000 H   0  0  0  0  0  0  0  0  0  0  0  0
    6.2565   -4.2182    0.0000 H   0  0  0  0  0  0  0  0  0  0  0  0
    6.6550   -4.9085    0.0000 H   0  0  0  0  0  0  0  0  0  0  0  0
    8.0622   -7.6359    0.0000 H   0  0  0  0  0  0  0  0  0  0  0  0
    9.7942   -7.0159    0.0000 H   0  0  0  0  0  0  0  0  0  0  0  0
    6.3301   -6.0159    0.0000 H   0  0  0  0  0  0  0  0  0  0  0  0
   11.7341   -8.1359    0.0000 H   0  0  0  0  0  0  0  0  0  0  0  0
   11.1972   -9.4459    0.0000 H   0  0  0  0  0  0  0  0  0  0  0  0
    8.8546   -8.7182    0.0000 H   0  0  0  0  0  0  0  0  0  0  0  0
    9.2531   -9.4085    0.0000 H   0  0  0  0  0  0  0  0  0  0  0  0
    6.5380   -2.5159    0.0000 H   0  0  0  0  0  0  0  0  0  0  0  0
    9.7942   -9.6359    0.0000 H   0  0  0  0  0  0  0  0  0  0  0  0
   12.6002   -7.6359    0.0000 H   0  0  0  0  0  0  0  0  0  0  0  0
    6.0010   -1.2059    0.0000 H   0  0  0  0  0  0  0  0  0  0  0  0
   12.0632   -9.9459    0.0000 H   0  0  0  0  0  0  0  0  0  0  0  0
    4.5981   -1.0159    0.0000 H   0  0  0  0  0  0  0  0  0  0  0  0
    9.7942  -10.6359    0.0000 H   0  0  0  0  0  0  0  0  0  0  0  0
    4.2690   -3.4459    0.0000 H   0  0  0  0  0  0  0  0  0  0  0  0
    4.2690   -1.2059    0.0000 H   0  0  0  0  0  0  0  0  0  0  0  0
    6.8671   -0.7059    0.0000 H   0  0  0  0  0  0  0  0  0  0  0  0
    3.0044   -3.8008    0.0000 H   0  0  0  0  0  0  0  0  0  0  0  0
    3.8015   -3.8008    0.0000 H   0  0  0  0  0  0  0  0  0  0  0  0
    4.5981   -0.0159    0.0000 H   0  0  0  0  0  0  0  0  0  0  0  0
    2.8660   -1.6359    0.0000 H   0  0  0  0  0  0  0  0  0  0  0  0
    2.0000   -3.1359    0.0000 H   0  0  0  0  0  0  0  0  0  0  0  0
  1 32  1  0  0  0  0
  1 35  1  0  0  0  0
 32  2  1  6  0  0  0
  2 49  1  0  0  0  0
 40  3  1  6  0  0  0
  3124  1  0  0  0  0
 47  4  1  6  0  0  0
 54  4  1  1  0  0  0
  5 54  1  0  0  0  0
  5 60  1  0  0  0  0
 56  6  1  6  0  0  0
 62  6  1  6  0  0  0
 59  7  1  1  0  0  0
 63  7  1  1  0  0  0
 61  8  1  1  0  0  0
  8139  1  0  0  0  0
  9 62  1  0  0  0  0
  9 67  1  0  0  0  0
 10 63  1  0  0  0  0
 10 70  1  0  0  0  0
 64 11  1  1  0  0  0
 11147  1  0  0  0  0
 65 12  1  6  0  0  0
 74 12  1  1  0  0  0
 66 13  1  1  0  0  0
 13153  1  0  0  0  0
 68 14  1  6  0  0  0
 14154  1  0  0  0  0
 69 15  1  1  0  0  0
 15157  1  0  0  0  0
 71 16  1  6  0  0  0
 16159  1  0  0  0  0
 17 73  1  0  0  0  0
 78 17  1  6  0  0  0
 18 74  1  0  0  0  0
 18 77  1  0  0  0  0
 75 19  1  6  0  0  0
 19166  1  0  0  0  0
 76 20  1  1  0  0  0
 20168  1  0  0  0  0
 21 78  1  0  0  0  0
 21 82  1  0  0  0  0
 79 22  1  6  0  0  0
 22170  1  0  0  0  0
 80 23  1  1  0  0  0
 23173  1  0  0  0  0
 81 24  1  6  0  0  0
 24176  1  0  0  0  0
 83 25  1  1  0  0  0
 25177  1  0  0  0  0
 26 84  1  0  0  0  0
 26178  1  0  0  0  0
 27 28  1  0  0  0  0
 27 29  1  0  0  0  0
 27 33  1  0  0  0  0
 27 35  1  1  0  0  0
 28 30  1  0  0  0  0
 28 37  1  0  0  0  0
 28 42  1  6  0  0  0
 29 31  1  0  0  0  0
 29 36  1  0  0  0  0
 29 85  1  6  0  0  0
 30 34  1  0  0  0  0
 30 39  1  0  0  0  0
 30 86  1  1  0  0  0
 31 32  1  0  0  0  0
 31 40  1  0  0  0  0
 31 87  1  1  0  0  0
 32 33  1  0  0  0  0
 33 88  1  0  0  0  0
 33 89  1  0  0  0  0
 34 38  1  0  0  0  0
 34 44  1  0  0  0  0
 34 45  1  6  0  0  0
 35 90  1  0  0  0  0
 35 91  1  0  0  0  0
 36 39  1  0  0  0  0
 36 92  1  0  0  0  0
 36 93  1  0  0  0  0
 37 41  1  0  0  0  0
 37 94  1  0  0  0  0
 37 95  1  0  0  0  0
 38 41  1  0  0  0  0
 38 43  1  0  0  0  0
 38 96  1  1  0  0  0
 39 97  1  0  0  0  0
 39 98  1  0  0  0  0
 40 46  1  0  0  0  0
 40 50  1  0  0  0  0
 41 99  1  0  0  0  0
 41100  1  0  0  0  0
 42101  1  0  0  0  0
 42102  1  0  0  0  0
 42103  1  0  0  0  0
 43 47  1  0  0  0  0
 43 51  1  0  0  0  0
 43 52  1  0  0  0  0
 44 48  1  0  0  0  0
 44104  1  0  0  0  0
 44105  1  0  0  0  0
 45106  1  0  0  0  0
 45107  1  0  0  0  0
 45108  1  0  0  0  0
 46 49  1  0  0  0  0
 46109  1  0  0  0  0
 46110  1  0  0  0  0
 47 48  1  0  0  0  0
 47111  1  0  0  0  0
 48112  1  0  0  0  0
 48113  1  0  0  0  0
 49 53  1  1  0  0  0
 49114  1  0  0  0  0
 50115  1  0  0  0  0
 50116  1  0  0  0  0
 50117  1  0  0  0  0
 51118  1  0  0  0  0
 51119  1  0  0  0  0
 51120  1  0  0  0  0
 52121  1  0  0  0  0
 52122  1  0  0  0  0
 52123  1  0  0  0  0
 53 55  2  0  0  0  0
 53125  1  0  0  0  0
 54 56  1  0  0  0  0
 54126  1  0  0  0  0
 55 57  1  0  0  0  0
 55 58  1  0  0  0  0
 56 59  1  0  0  0  0
 56127  1  0  0  0  0
 57128  1  0  0  0  0
 57129  1  0  0  0  0
 57130  1  0  0  0  0
 58131  1  0  0  0  0
 58132  1  0  0  0  0
 58133  1  0  0  0  0
 59 61  1  0  0  0  0
 59134  1  0  0  0  0
 60 61  1  0  0  0  0
 60135  1  0  0  0  0
 60136  1  0  0  0  0
 61137  1  0  0  0  0
 62 64  1  0  0  0  0
 62138  1  0  0  0  0
 63 65  1  0  0  0  0
 63140  1  0  0  0  0
 64 66  1  0  0  0  0
 64141  1  0  0  0  0
 65 69  1  0  0  0  0
 65142  1  0  0  0  0
 66 68  1  0  0  0  0
 66143  1  0  0  0  0
 67 68  1  0  0  0  0
 67 72  1  1  0  0  0
 67144  1  0  0  0  0
 68145  1  0  0  0  0
 69 71  1  0  0  0  0
 69146  1  0  0  0  0
 70 71  1  0  0  0  0
 70 73  1  1  0  0  0
 70148  1  0  0  0  0
 71149  1  0  0  0  0
 72150  1  0  0  0  0
 72151  1  0  0  0  0
 72152  1  0  0  0  0
 73155  1  0  0  0  0
 73156  1  0  0  0  0
 74 75  1  0  0  0  0
 74158  1  0  0  0  0
 75 76  1  0  0  0  0
 75160  1  0  0  0  0
 76 79  1  0  0  0  0
 76161  1  0  0  0  0
 77 79  1  0  0  0  0
 77162  1  0  0  0  0
 77163  1  0  0  0  0
 78 80  1  0  0  0  0
 78164  1  0  0  0  0
 79165  1  0  0  0  0
 80 81  1  0  0  0  0
 80167  1  0  0  0  0
 81 83  1  0  0  0  0
 81169  1  0  0  0  0
 82 83  1  0  0  0  0
 82 84  1  6  0  0  0
 82171  1  0  0  0  0
 83172  1  0  0  0  0
 84174  1  0  0  0  0
 84175  1  0  0  0  0
M  END
> <PUBCHEM_COMPOUND_CID>
51346169

> <PUBCHEM_COMPOUND_CANONICALIZED>
1

> <PUBCHEM_CACTVS_COMPLEXITY>
2330

> <PUBCHEM_CACTVS_HBOND_ACCEPTOR>
26

> <PUBCHEM_CACTVS_HBOND_DONOR>
14

> <PUBCHEM_CACTVS_ROTATABLE_BOND>
13

> <PUBCHEM_CACTVS_SUBSKEYS>
AAADcfB8PgAAAAAAAAAAAAAAAAAAAaIAAAA0aNEiQAAAAGjQAAAAGgAACAAAD1SwgAMCCAAABgCAAiBCAAAAAAAgAAAACAAAAAgRFAIAIQAiUAAFgAAPIAPA4PwPgAAAAAAAAADAAAYAADAAAYAADAAAAA==

> <PUBCHEM_IUPAC_OPENEYE_NAME>
(2S,3R,4R,5R,6S)-2-[(2S,3R,4S,5S)-4-[(2S,3R,4S,5S,6R)-4,5-dihydroxy-6-[[(2R,3R,4S,5S,6R)-3,4,5-trihydroxy-6-(hydroxymethyl)tetrahydropyran-2-yl]oxymethyl]-3-[(2S,3R,4S,5R)-3,4,5-trihydroxytetrahydropyran-2-yl]oxy-tetrahydropyran-2-yl]oxy-5-hydroxy-2-[[(1S,2R,5R,7S,10R,11R,14R,15S,16S,18R,20S)-16-hydroxy-2,6,6,10,16-pentamethyl-18-(2-methylprop-1-enyl)-19,21-dioxahexacyclo[18.2.1.01,14.02,11.05,10.015,20]tricosan-7-yl]oxy]tetrahydropyran-3-yl]oxy-6-methyl-tetrahydropyran-3,4,5-triol

> <PUBCHEM_IUPAC_CAS_NAME>
(2S,3R,4R,5R,6S)-2-[[(2S,3R,4S,5S)-4-[[(2S,3R,4S,5S,6R)-4,5-dihydroxy-6-[[(2R,3R,4S,5S,6R)-3,4,5-trihydroxy-6-(hydroxymethyl)-2-oxanyl]oxymethyl]-3-[[(2S,3R,4S,5R)-3,4,5-trihydroxy-2-oxanyl]oxy]-2-oxanyl]oxy]-5-hydroxy-2-[[(1S,2R,5R,7S,10R,11R,14R,15S,16S,18R,20S)-16-hydroxy-2,6,6,10,16-pentamethyl-18-(2-methylprop-1-enyl)-19,21-dioxahexacyclo[18.2.1.01,14.02,11.05,10.015,20]tricosan-7-yl]oxy]-3-oxanyl]oxy]-6-methyloxane-3,4,5-triol

> <PUBCHEM_IUPAC_NAME_MARKUP>
(2<I>S</I>,3<I>R</I>,4<I>R</I>,5<I>R</I>,6<I>S</I>)-2-[(2<I>S</I>,3<I>R</I>,4<I>S</I>,5<I>S</I>)-4-[(2<I>S</I>,3<I>R</I>,4<I>S</I>,5<I>S</I>,6<I>R</I>)-4,5-dihydroxy-6-[[(2<I>R</I>,3<I>R</I>,4<I>S</I>,5<I>S</I>,6<I>R</I>)-3,4,5-trihydroxy-6-(hydroxymethyl)oxan-2-yl]oxymethyl]-3-[(2<I>S</I>,3<I>R</I>,4<I>S</I>,5<I>R</I>)-3,4,5-trihydroxyoxan-2-yl]oxyoxan-2-yl]oxy-5-hydroxy-2-[[(1<I>S</I>,2<I>R</I>,5<I>R</I>,7<I>S</I>,10<I>R</I>,11<I>R</I>,14<I>R</I>,15<I>S</I>,16<I>S</I>,18<I>R</I>,20<I>S</I>)-16-hydroxy-2,6,6,10,16-pentamethyl-18-(2-methylprop-1-enyl)-19,21-dioxahexacyclo[18.2.1.0<SUP>1,14</SUP>.0<SUP>2,11</SUP>.0<SUP>5,10</SUP>.0<SUP>15,20</SUP>]tricosan-7-yl]oxy]oxan-3-yl]oxy-6-methyloxane-3,4,5-triol

> <PUBCHEM_IUPAC_NAME>
(2S,3R,4R,5R,6S)-2-[(2S,3R,4S,5S)-4-[(2S,3R,4S,5S,6R)-4,5-dihydroxy-6-[[(2R,3R,4S,5S,6R)-3,4,5-trihydroxy-6-(hydroxymethyl)oxan-2-yl]oxymethyl]-3-[(2S,3R,4S,5R)-3,4,5-trihydroxyoxan-2-yl]oxyoxan-2-yl]oxy-5-hydroxy-2-[[(1S,2R,5R,7S,10R,11R,14R,15S,16S,18R,20S)-16-hydroxy-2,6,6,10,16-pentamethyl-18-(2-methylprop-1-enyl)-19,21-dioxahexacyclo[18.2.1.01,14.02,11.05,10.015,20]tricosan-7-yl]oxy]oxan-3-yl]oxy-6-methyloxane-3,4,5-triol

> <PUBCHEM_IUPAC_SYSTEMATIC_NAME>
(2S,3R,4R,5R,6S)-2-[(2S,3R,4S,5S)-4-[(2S,3R,4S,5S,6R)-6-[[(2R,3R,4S,5S,6R)-6-(hydroxymethyl)-3,4,5-tris(oxidanyl)oxan-2-yl]oxymethyl]-4,5-bis(oxidanyl)-3-[(2S,3R,4S,5R)-3,4,5-tris(oxidanyl)oxan-2-yl]oxy-oxan-2-yl]oxy-5-oxidanyl-2-[[(1S,2R,5R,7S,10R,11R,14R,15S,16S,18R,20S)-2,6,6,10,16-pentamethyl-18-(2-methylprop-1-enyl)-16-oxidanyl-19,21-dioxahexacyclo[18.2.1.01,14.02,11.05,10.015,20]tricosan-7-yl]oxy]oxan-3-yl]oxy-6-methyl-oxane-3,4,5-triol

> <PUBCHEM_IUPAC_TRADITIONAL_NAME>
(2S,3R,4R,5R,6S)-2-[(2S,3R,4S,5S)-4-[(2S,3R,4S,5S,6R)-4,5-dihydroxy-6-[[(2R,3R,4S,5S,6R)-3,4,5-trihydroxy-6-methylol-tetrahydropyran-2-yl]oxymethyl]-3-[(2S,3R,4S,5R)-3,4,5-trihydroxytetrahydropyran-2-yl]oxy-tetrahydropyran-2-yl]oxy-5-hydroxy-2-[[(1S,2R,5R,7S,10R,11R,14R,15S,16S,18R,20S)-16-hydroxy-2,6,6,10,16-pentamethyl-18-(2-methylprop-1-enyl)-19,21-dioxahexacyclo[18.2.1.01,14.02,11.05,10.015,20]tricosan-7-yl]oxy]tetrahydropyran-3-yl]oxy-6-methyl-tetrahydropyran-3,4,5-triol

> <PUBCHEM_IUPAC_INCHI>
InChI=1S/C58H94O26/c1-23(2)15-25-16-56(8,72)47-26-9-10-32-54(6)13-12-33(53(4,5)31(54)11-14-55(32,7)57(26)21-58(47,84-25)76-22-57)80-51-46(83-50-43(71)38(66)34(62)24(3)77-50)44(28(61)19-74-51)81-52-45(82-49-41(69)35(63)27(60)18-73-49)40(68)37(65)30(79-52)20-75-48-42(70)39(67)36(64)29(17-59)78-48/h15,24-52,59-72H,9-14,16-22H2,1-8H3/t24-,25-,26+,27+,28-,29+,30+,31-,32+,33-,34-,35-,36+,37+,38+,39-,40-,41+,42+,43+,44-,45+,46+,47-,48+,49-,50-,51-,52-,54-,55+,56-,57-,58-/m0/s1

> <PUBCHEM_IUPAC_INCHIKEY>
KVKRFLVYJLIZFD-OQVAHBRNSA-N

> <PUBCHEM_XLOGP3_AA>
-1.6

> <PUBCHEM_EXACT_MASS>
1206.60333310

> <PUBCHEM_MOLECULAR_FORMULA>
C58H94O26

> <PUBCHEM_MOLECULAR_WEIGHT>
1207.3

> <PUBCHEM_SMILES>
C[C@H]1[C@@H]([C@H]([C@H]([C@@H](O1)O[C@@H]2[C@H]([C@H](CO[C@H]2O[C@H]3CC[C@@]4([C@H]5CC[C@@H]6[C@H]7[C@@](C[C@@H](O[C@@]78C[C@]6([C@@]5(CC[C@H]4C3(C)C)C)CO8)C=C(C)C)(C)O)C)O)O[C@H]9[C@@H]([C@H]([C@@H]([C@H](O9)CO[C@H]1[C@@H]([C@H]([C@@H]([C@H](O1)CO)O)O)O)O)O)O[C@H]1[C@@H]([C@H]([C@@H](CO1)O)O)O)O)O)O

> <PUBCHEM_CONNECTIVITY_SMILES>
CC1C(C(C(C(O1)OC2C(C(COC2OC3CCC4(C5CCC6C7C(CC(OC78CC6(C5(CCC4C3(C)C)C)CO8)C=C(C)C)(C)O)C)O)OC9C(C(C(C(O9)COC1C(C(C(C(O1)CO)O)O)O)O)O)OC1C(C(C(CO1)O)O)O)O)O)O

> <PUBCHEM_CACTVS_TPSA>
394

> <PUBCHEM_MONOISOTOPIC_WEIGHT>
1206.60333310

> <PUBCHEM_TOTAL_CHARGE>
0

> <PUBCHEM_HEAVY_ATOM_COUNT>
84

> <PUBCHEM_ATOM_DEF_STEREO_COUNT>
34

> <PUBCHEM_ATOM_UDEF_STEREO_COUNT>
0

> <PUBCHEM_BOND_DEF_STEREO_COUNT>
0

> <PUBCHEM_BOND_UDEF_STEREO_COUNT>
0

> <PUBCHEM_ISOTOPIC_ATOM_COUNT>
0

> <PUBCHEM_COMPONENT_COUNT>
1

> <PUBCHEM_CACTVS_TAUTO_COUNT>
-1

> <PUBCHEM_COORDINATE_TYPE>
1
5
255

> <PUBCHEM_BONDANNOTATIONS>
64  11  5
65  12  6
74  12  5
66  13  5
68  14  6
69  15  5
71  16  6
78  17  6
75  19  6
32  2  6
76  20  5
79  22  6
80  23  5
81  24  6
83  25  5
27  35  5
28  42  6
29  85  6
40  3  6
30  86  5
31  87  5
34  45  6
38  96  5
47  4  6
54  4  5
49  53  5
56  6  6
62  6  6
67  72  5
59  7  5
63  7  5
70  73  5
61  8  5
82  84  6

$$$$
