5274587
  -OEChem-09152621193D

 47 49  0     1  0  0  0  0  0999 V2000
    0.2060   -3.3870   -0.4147 O   0  0  0  0  0  0  0  0  0  0  0  0
    2.7861   -3.5989    0.5930 O   0  0  0  0  0  0  0  0  0  0  0  0
   -5.3802   -1.0003   -0.1714 O   0  0  0  0  0  0  0  0  0  0  0  0
    1.4947    2.6785   -0.4533 N   0  3  0  0  0  0  0  0  0  0  0  0
    0.4636    1.5108   -0.3247 C   0  0  1  0  0  0  0  0  0  0  0  0
    2.5249    2.5863    0.6756 C   0  0  0  0  0  0  0  0  0  0  0  0
    1.1111    0.1559   -0.0953 C   0  0  0  0  0  0  0  0  0  0  0  0
    3.2759    1.2597    0.6500 C   0  0  0  0  0  0  0  0  0  0  0  0
   -0.5634    1.7761    0.7895 C   0  0  0  0  0  0  0  0  0  0  0  0
    2.4152    0.0472    0.4156 C   0  0  0  0  0  0  0  0  0  0  0  0
    2.1812    2.6069   -1.8288 C   0  0  0  0  0  0  0  0  0  0  0  0
    0.8214    4.0545   -0.3855 C   0  0  0  0  0  0  0  0  0  0  0  0
    0.3824   -1.0134   -0.3715 C   0  0  0  0  0  0  0  0  0  0  0  0
   -1.8439    1.0378    0.5345 C   0  0  0  0  0  0  0  0  0  0  0  0
    2.9653   -1.2254    0.6372 C   0  0  0  0  0  0  0  0  0  0  0  0
    0.9374   -2.2714   -0.1405 C   0  0  0  0  0  0  0  0  0  0  0  0
    2.2283   -2.3774    0.3661 C   0  0  0  0  0  0  0  0  0  0  0  0
   -2.8553    1.6470   -0.1999 C   0  0  0  0  0  0  0  0  0  0  0  0
   -2.0085   -0.2494    1.0340 C   0  0  0  0  0  0  0  0  0  0  0  0
   -4.0460    0.9606   -0.4379 C   0  0  0  0  0  0  0  0  0  0  0  0
   -3.1991   -0.9360    0.7961 C   0  0  0  0  0  0  0  0  0  0  0  0
   -4.2179   -0.3309    0.0602 C   0  0  0  0  0  0  0  0  0  0  0  0
    0.3209   -3.9311   -1.7282 C   0  0  0  0  0  0  0  0  0  0  0  0
   -0.0415    1.4963   -1.3005 H   0  0  0  0  0  0  0  0  0  0  0  0
    1.9769    2.6986    1.6186 H   0  0  0  0  0  0  0  0  0  0  0  0
    3.2157    3.4315    0.5745 H   0  0  0  0  0  0  0  0  0  0  0  0
    3.8057    1.1505    1.6045 H   0  0  0  0  0  0  0  0  0  0  0  0
    4.0429    1.2904   -0.1340 H   0  0  0  0  0  0  0  0  0  0  0  0
   -0.8435    2.8269    0.8875 H   0  0  0  0  0  0  0  0  0  0  0  0
   -0.1634    1.4989    1.7745 H   0  0  0  0  0  0  0  0  0  0  0  0
    2.9749    3.3594   -1.8573 H   0  0  0  0  0  0  0  0  0  0  0  0
    2.5979    1.6090   -1.9811 H   0  0  0  0  0  0  0  0  0  0  0  0
    1.4288    2.8151   -2.5957 H   0  0  0  0  0  0  0  0  0  0  0  0
    1.5416    4.8051   -0.7276 H   0  0  0  0  0  0  0  0  0  0  0  0
   -0.0537    4.0456   -1.0416 H   0  0  0  0  0  0  0  0  0  0  0  0
    0.5541    4.2818    0.6496 H   0  0  0  0  0  0  0  0  0  0  0  0
   -0.5787   -0.9608   -0.8745 H   0  0  0  0  0  0  0  0  0  0  0  0
    3.9816   -1.3090    1.0168 H   0  0  0  0  0  0  0  0  0  0  0  0
   -2.7315    2.6513   -0.5959 H   0  0  0  0  0  0  0  0  0  0  0  0
   -1.2559   -0.7140    1.6649 H   0  0  0  0  0  0  0  0  0  0  0  0
   -4.8317    1.4427   -1.0134 H   0  0  0  0  0  0  0  0  0  0  0  0
   -3.3324   -1.9365    1.1984 H   0  0  0  0  0  0  0  0  0  0  0  0
    3.6856   -3.4773    0.9423 H   0  0  0  0  0  0  0  0  0  0  0  0
   -0.0214   -3.2068   -2.4741 H   0  0  0  0  0  0  0  0  0  0  0  0
   -0.3130   -4.8200   -1.7874 H   0  0  0  0  0  0  0  0  0  0  0  0
    1.3550   -4.2240   -1.9354 H   0  0  0  0  0  0  0  0  0  0  0  0
   -5.9716   -0.4329   -0.6951 H   0  0  0  0  0  0  0  0  0  0  0  0
  1 16  1  0  0  0  0
  1 23  1  0  0  0  0
  2 17  1  0  0  0  0
  2 43  1  0  0  0  0
  3 22  1  0  0  0  0
  3 47  1  0  0  0  0
  4  5  1  0  0  0  0
  4  6  1  0  0  0  0
  4 11  1  0  0  0  0
  4 12  1  0  0  0  0
  5  7  1  0  0  0  0
  5  9  1  0  0  0  0
  5 24  1  0  0  0  0
  6  8  1  0  0  0  0
  6 25  1  0  0  0  0
  6 26  1  0  0  0  0
  7 10  1  0  0  0  0
  7 13  2  0  0  0  0
  8 10  1  0  0  0  0
  8 27  1  0  0  0  0
  8 28  1  0  0  0  0
  9 14  1  0  0  0  0
  9 29  1  0  0  0  0
  9 30  1  0  0  0  0
 10 15  2  0  0  0  0
 11 31  1  0  0  0  0
 11 32  1  0  0  0  0
 11 33  1  0  0  0  0
 12 34  1  0  0  0  0
 12 35  1  0  0  0  0
 12 36  1  0  0  0  0
 13 16  1  0  0  0  0
 13 37  1  0  0  0  0
 14 18  2  0  0  0  0
 14 19  1  0  0  0  0
 15 17  1  0  0  0  0
 15 38  1  0  0  0  0
 16 17  2  0  0  0  0
 18 20  1  0  0  0  0
 18 39  1  0  0  0  0
 19 21  2  0  0  0  0
 19 40  1  0  0  0  0
 20 22  2  0  0  0  0
 20 41  1  0  0  0  0
 21 22  1  0  0  0  0
 21 42  1  0  0  0  0
 23 44  1  0  0  0  0
 23 45  1  0  0  0  0
 23 46  1  0  0  0  0
M  CHG  1   4   1
M  END
> <PUBCHEM_COMPOUND_CID>
5274587

> <PUBCHEM_CONFORMER_RMSD>
0.6

> <PUBCHEM_CONFORMER_DIVERSEORDER>
2
7
6
8
3
5
4
9
1

> <PUBCHEM_MMFF94_PARTIAL_CHARGES>
31
1 -0.36
10 -0.14
11 0.5
12 0.5
13 -0.15
14 -0.14
15 -0.15
16 0.08
17 0.08
18 -0.15
19 -0.15
2 -0.53
20 -0.15
21 -0.15
22 0.08
23 0.28
3 -0.53
37 0.15
38 0.15
39 0.15
4 -1.01
40 0.15
41 0.15
42 0.15
43 0.45
47 0.45
5 0.65
6 0.5
7 -0.14
8 0.14
9 0.14

> <PUBCHEM_EFFECTIVE_ROTOR_COUNT>
3.8

> <PUBCHEM_PHARMACOPHORE_FEATURES>
7
1 1 acceptor
1 2 donor
1 3 donor
1 4 cation
6 14 18 19 20 21 22 rings
6 4 5 6 7 8 10 rings
6 7 10 13 15 16 17 rings

> <PUBCHEM_HEAVY_ATOM_COUNT>
23

> <PUBCHEM_ATOM_DEF_STEREO_COUNT>
1

> <PUBCHEM_ATOM_UDEF_STEREO_COUNT>
0

> <PUBCHEM_BOND_DEF_STEREO_COUNT>
0

> <PUBCHEM_BOND_UDEF_STEREO_COUNT>
0

> <PUBCHEM_ISOTOPIC_ATOM_COUNT>
0

> <PUBCHEM_COMPONENT_COUNT>
1

> <PUBCHEM_CACTVS_TAUTO_COUNT>
18

> <PUBCHEM_CONFORMER_ID>
00507BDB00000002

> <PUBCHEM_MMFF94_ENERGY>
93.7835

> <PUBCHEM_FEATURE_SELFOVERLAP>
35.54

> <PUBCHEM_SHAPE_FINGERPRINT>
10616163 171 18338238284008591603
10967382 1 18410574019622115400
1100329 8 18124029298286793936
11370993 70 18337383971800019657
116883 192 17762055436962617053
12011746 2 18408325492947899976
12160290 23 17332829625499540482
12553582 1 17978808817155884563
12788726 201 17397551904980234194
13140716 1 18050561047825247136
13681431 1 18193295004261875700
13836976 161 18263925599742537805
138480 1 18337953376830655080
14178342 30 18198342862293020081
14251757 5 16541323648799865695
14787075 74 17630313366772402104
14790565 3 18409173246774001476
14844126 61 16892011800031003754
14863182 85 18412552023871060854
14866123 147 18123178276692596600
15338160 23 17048196839090117304
16945 1 18261686976804159768
17138139 8 17269451520918271247
17492 89 18409727344688789787
18681886 176 18338513170231625048
19591789 44 17834121118608495315
20028762 73 18060411447723726543
20642791 13 17690550892984092637
20645477 70 18334290998710240977
21197605 99 17976549634985391419
21421861 104 18127434288371705401
221490 88 18335145275910416675
2255824 54 18410866476814559405
23184049 29 17545321878249207490
23419403 2 17752743780709240212
23558518 356 17402890523744201740
23559900 14 18338227176980525649
238 59 18337962310584170345
257057 1 18120936096740737792
2748010 2 18338228259417629616
3052486 1 17404282488179199371
3060560 45 18190189068750626396
33824 294 18411135878659007969
484985 159 15149915942066732282
6438718 38 16906677627277414142
6443956 14 18264769865838189317
7364860 26 18410294705003528561
81228 2 17399249550906990424
9709674 26 18334014986879306947

> <PUBCHEM_SHAPE_MULTIPOLES>
450.74
6.67
4.94
1.14
8.92
1.91
-0.37
0.12
0.71
-4.12
-1.64
-0.37
0.09
-0.45

> <PUBCHEM_SHAPE_SELFOVERLAP>
964.702

> <PUBCHEM_SHAPE_VOLUME>
250.6

> <PUBCHEM_COORDINATE_TYPE>
2
5
10

$$$$
